output/1_QUEB_1/Cargas_BT_DO03_1_QUEB_1.dss
New "Load.BT_233150_M1" bus1="UC233150.1.2.3.4" phases=3 conn=delta model=2 kv=0.38 kw = 1.5577711926127995 pf=0.92 status=variable vmaxpu=1.5 vminpu=0.93 daily="RU8_DO" 
New "Load.BT_233150_M2" bus1="UC233150.1.2.3.4" phases=3 conn=delta model=3 kv=0.38 kw = 1.5577711926127995 pf=0.92 status=variable vmaxpu=1.5 vminpu=0.93 daily="RU8_DO"
 
New "Load.BT_233144_M1" bus1="UC233144.1.2.4" phases=2 conn=delta model=2 kv=0.38 kw = 0.26936454000675575 pf=0.92 status=variable vmaxpu=1.5 vminpu=0.93 daily="RU5_DO" 
New "Load.BT_233144_M2" bus1="UC233144.1.2.4" phases=2 conn=delta model=3 kv=0.38 kw = 0.26936454000675575 pf=0.92 status=variable vmaxpu=1.5 vminpu=0.93 daily="RU5_DO"
 
New "Load.BT_232530_M1" bus1="UC232530.1.2.4" phases=2 conn=delta model=2 kv=0.38 kw = 0.30605125437979663 pf=0.92 status=variable vmaxpu=1.5 vminpu=0.93 daily="RU3_DO" 
New "Load.BT_232530_M2" bus1="UC232530.1.2.4" phases=2 conn=delta model=3 kv=0.38 kw = 0.30605125437979663 pf=0.92 status=variable vmaxpu=1.5 vminpu=0.93 daily="RU3_DO"
 
New "Load.BT_231938_M1" bus1="UC231938.1.4" phases=1 conn=delta model=2 kv=0.22 kw = 0.24731372342505137 pf=0.92 status=variable vmaxpu=1.5 vminpu=0.93 daily="RU6_DO" 
New "Load.BT_231938_M2" bus1="UC231938.1.4" phases=1 conn=delta model=3 kv=0.22 kw = 0.24731372342505137 pf=0.92 status=variable vmaxpu=1.5 vminpu=0.93 daily="RU6_DO"
 
New "Load.BT_2831932_M1" bus1="UC2831932.1.4" phases=1 conn=delta model=2 kv=0.22 kw = 0.26911403402361433 pf=0.92 status=variable vmaxpu=1.5 vminpu=0.93 daily="RU3_DO" 
New "Load.BT_2831932_M2" bus1="UC2831932.1.4" phases=1 conn=delta model=3 kv=0.22 kw = 0.26911403402361433 pf=0.92 status=variable vmaxpu=1.5 vminpu=0.93 daily="RU3_DO"
 
New "Load.BT_231933_M1" bus1="UC231933.1.2.4" phases=2 conn=delta model=2 kv=0.44 kw = 2.1245210995863575 pf=0.92 status=variable vmaxpu=1.5 vminpu=0.93 daily="RU5_DO" 
New "Load.BT_231933_M2" bus1="UC231933.1.2.4" phases=2 conn=delta model=3 kv=0.44 kw = 2.1245210995863575 pf=0.92 status=variable vmaxpu=1.5 vminpu=0.93 daily="RU5_DO"
 
New "Load.BT_2831495_M1" bus1="UC2831495.1.4" phases=1 conn=delta model=2 kv=0.22 kw = 0.16885586448540504 pf=0.92 status=variable vmaxpu=1.5 vminpu=0.93 daily="RU3_DO" 
New "Load.BT_2831495_M2" bus1="UC2831495.1.4" phases=1 conn=delta model=3 kv=0.22 kw = 0.16885586448540504 pf=0.92 status=variable vmaxpu=1.5 vminpu=0.93 daily="RU3_DO"
 
New "Load.BT_2831490_M1" bus1="UC2831490.1.4" phases=1 conn=delta model=2 kv=0.22 kw = 0.00911750612807986 pf=0.92 status=variable vmaxpu=1.5 vminpu=0.93 daily="RU1_DO" 
New "Load.BT_2831490_M2" bus1="UC2831490.1.4" phases=1 conn=delta model=3 kv=0.22 kw = 0.00911750612807986 pf=0.92 status=variable vmaxpu=1.5 vminpu=0.93 daily="RU1_DO"
 
New "Load.BT_231251_M1" bus1="UC231251.3.4" phases=1 conn=delta model=2 kv=0.22 kw = 0.0 pf=0.92 status=variable vmaxpu=1.5 vminpu=0.93 daily="CO3_DO" 
New "Load.BT_231251_M2" bus1="UC231251.3.4" phases=1 conn=delta model=3 kv=0.22 kw = 0.0 pf=0.92 status=variable vmaxpu=1.5 vminpu=0.93 daily="CO3_DO"
 
New "Load.BT_2831192_M1" bus1="UC2831192.1.4" phases=1 conn=delta model=2 kv=0.22 kw = 0.031763571420272876 pf=0.92 status=variable vmaxpu=1.5 vminpu=0.93 daily="RU7_DO" 
New "Load.BT_2831192_M2" bus1="UC2831192.1.4" phases=1 conn=delta model=3 kv=0.22 kw = 0.031763571420272876 pf=0.92 status=variable vmaxpu=1.5 vminpu=0.93 daily="RU7_DO"
 
New "Load.BT_2831188_M1" bus1="UC2831188.1.4" phases=1 conn=delta model=2 kv=0.22 kw = 0.14586944835375906 pf=0.92 status=variable vmaxpu=1.5 vminpu=0.93 daily="PP3_DO" 
New "Load.BT_2831188_M2" bus1="UC2831188.1.4" phases=1 conn=delta model=3 kv=0.22 kw = 0.14586944835375906 pf=0.92 status=variable vmaxpu=1.5 vminpu=0.93 daily="PP3_DO"
 
New "Load.BT_230656_M1" bus1="UC230656.2.4" phases=1 conn=delta model=2 kv=0.22 kw = 0.07715016645047458 pf=0.92 status=variable vmaxpu=1.5 vminpu=0.93 daily="RU2_DO" 
New "Load.BT_230656_M2" bus1="UC230656.2.4" phases=1 conn=delta model=3 kv=0.22 kw = 0.07715016645047458 pf=0.92 status=variable vmaxpu=1.5 vminpu=0.93 daily="RU2_DO"
 
New "Load.BT_2830653_M1" bus1="UC2830653.2.4" phases=1 conn=delta model=2 kv=0.22 kw = 0.09703776491326359 pf=0.92 status=variable vmaxpu=1.5 vminpu=0.93 daily="RU2_DO" 
New "Load.BT_2830653_M2" bus1="UC2830653.2.4" phases=1 conn=delta model=3 kv=0.22 kw = 0.09703776491326359 pf=0.92 status=variable vmaxpu=1.5 vminpu=0.93 daily="RU2_DO"
 
New "Load.BT_230651_M1" bus1="UC230651.1.4" phases=1 conn=delta model=2 kv=0.22 kw = 0.34943284769529115 pf=0.92 status=variable vmaxpu=1.5 vminpu=0.93 daily="RU4_DO" 
New "Load.BT_230651_M2" bus1="UC230651.1.4" phases=1 conn=delta model=3 kv=0.22 kw = 0.34943284769529115 pf=0.92 status=variable vmaxpu=1.5 vminpu=0.93 daily="RU4_DO"
 
New "Load.BT_230555_M1" bus1="UC230555.1.4" phases=1 conn=delta model=2 kv=0.22 kw = 0.025175277211476308 pf=0.92 status=variable vmaxpu=1.5 vminpu=0.93 daily="RU4_DO" 
New "Load.BT_230555_M2" bus1="UC230555.1.4" phases=1 conn=delta model=3 kv=0.22 kw = 0.025175277211476308 pf=0.92 status=variable vmaxpu=1.5 vminpu=0.93 daily="RU4_DO"
 
New "Load.BT_228394_M1" bus1="UC228394.1.4" phases=1 conn=delta model=2 kv=0.22 kw = 0.39828219923177893 pf=0.92 status=variable vmaxpu=1.5 vminpu=0.93 daily="RU5_DO" 
New "Load.BT_228394_M2" bus1="UC228394.1.4" phases=1 conn=delta model=3 kv=0.22 kw = 0.39828219923177893 pf=0.92 status=variable vmaxpu=1.5 vminpu=0.93 daily="RU5_DO"
 
New "Load.BT_228388_M1" bus1="UC228388.1.4" phases=1 conn=delta model=2 kv=0.22 kw = 0.14428217604934732 pf=0.92 status=variable vmaxpu=1.5 vminpu=0.93 daily="RE1_DO" 
New "Load.BT_228388_M2" bus1="UC228388.1.4" phases=1 conn=delta model=3 kv=0.22 kw = 0.14428217604934732 pf=0.92 status=variable vmaxpu=1.5 vminpu=0.93 daily="RE1_DO"
 
New "Load.BT_227082_M1" bus1="UC227082.2.4" phases=1 conn=delta model=2 kv=0.22 kw = 0.0 pf=0.92 status=variable vmaxpu=1.5 vminpu=0.93 daily="RU7_DO" 
New "Load.BT_227082_M2" bus1="UC227082.2.4" phases=1 conn=delta model=3 kv=0.22 kw = 0.0 pf=0.92 status=variable vmaxpu=1.5 vminpu=0.93 daily="RU7_DO"
 
New "Load.BT_2827937_M1" bus1="UC2827937.1.4" phases=1 conn=delta model=2 kv=0.22 kw = 0.11117249997095506 pf=0.92 status=variable vmaxpu=1.5 vminpu=0.93 daily="RU7_DO" 
New "Load.BT_2827937_M2" bus1="UC2827937.1.4" phases=1 conn=delta model=3 kv=0.22 kw = 0.11117249997095506 pf=0.92 status=variable vmaxpu=1.5 vminpu=0.93 daily="RU7_DO"
 
New "Load.BT_228376_M1" bus1="UC228376.1.4" phases=1 conn=delta model=2 kv=0.22 kw = 0.2527597832032221 pf=0.92 status=variable vmaxpu=1.5 vminpu=0.93 daily="RU4_DO" 
New "Load.BT_228376_M2" bus1="UC228376.1.4" phases=1 conn=delta model=3 kv=0.22 kw = 0.2527597832032221 pf=0.92 status=variable vmaxpu=1.5 vminpu=0.93 daily="RU4_DO"
 
New "Load.BT_226217_M1" bus1="UC226217.1.4" phases=1 conn=delta model=2 kv=0.22 kw = 0.0702215165023249 pf=0.92 status=variable vmaxpu=1.5 vminpu=0.93 daily="RU8_DO" 
New "Load.BT_226217_M2" bus1="UC226217.1.4" phases=1 conn=delta model=3 kv=0.22 kw = 0.0702215165023249 pf=0.92 status=variable vmaxpu=1.5 vminpu=0.93 daily="RU8_DO"
 
New "Load.BT_226224_M1" bus1="UC226224.2.4" phases=1 conn=delta model=2 kv=0.22 kw = 0.08951376098967924 pf=0.92 status=variable vmaxpu=1.5 vminpu=0.93 daily="RE6_DO" 
New "Load.BT_226224_M2" bus1="UC226224.2.4" phases=1 conn=delta model=3 kv=0.22 kw = 0.08951376098967924 pf=0.92 status=variable vmaxpu=1.5 vminpu=0.93 daily="RE6_DO"
 
New "Load.BT_226233_M1" bus1="UC226233.1.2.3.4" phases=3 conn=delta model=2 kv=0.38 kw = 0.2978278069652048 pf=0.92 status=variable vmaxpu=1.5 vminpu=0.93 daily="CO4_DO" 
New "Load.BT_226233_M2" bus1="UC226233.1.2.3.4" phases=3 conn=delta model=3 kv=0.38 kw = 0.2978278069652048 pf=0.92 status=variable vmaxpu=1.5 vminpu=0.93 daily="CO4_DO"
 
New "Load.BT_227077_M1" bus1="UC227077.2.4" phases=1 conn=delta model=2 kv=0.22 kw = 0.35998714276309257 pf=0.92 status=variable vmaxpu=1.5 vminpu=0.93 daily="RU7_DO" 
New "Load.BT_227077_M2" bus1="UC227077.2.4" phases=1 conn=delta model=3 kv=0.22 kw = 0.35998714276309257 pf=0.92 status=variable vmaxpu=1.5 vminpu=0.93 daily="RU7_DO"
 
New "Load.BT_227073_M1" bus1="UC227073.2.4" phases=1 conn=delta model=2 kv=0.22 kw = 0.01758915255056303 pf=0.92 status=variable vmaxpu=1.5 vminpu=0.93 daily="RU3_DO" 
New "Load.BT_227073_M2" bus1="UC227073.2.4" phases=1 conn=delta model=3 kv=0.22 kw = 0.01758915255056303 pf=0.92 status=variable vmaxpu=1.5 vminpu=0.93 daily="RU3_DO"
 
New "Load.BT_2805756_M1" bus1="UC2805756.1.2.3.4" phases=3 conn=delta model=2 kv=0.38 kw = 0.22287825863470437 pf=0.92 status=variable vmaxpu=1.5 vminpu=0.93 daily="RU2_DO" 
New "Load.BT_2805756_M2" bus1="UC2805756.1.2.3.4" phases=3 conn=delta model=3 kv=0.38 kw = 0.22287825863470437 pf=0.92 status=variable vmaxpu=1.5 vminpu=0.93 daily="RU2_DO"
 
New "Load.BT_2805757_M1" bus1="UC2805757.1.2.3.4" phases=3 conn=delta model=2 kv=0.38 kw = 0.22905027195074232 pf=0.92 status=variable vmaxpu=1.5 vminpu=0.93 daily="RU2_DO" 
New "Load.BT_2805757_M2" bus1="UC2805757.1.2.3.4" phases=3 conn=delta model=3 kv=0.38 kw = 0.22905027195074232 pf=0.92 status=variable vmaxpu=1.5 vminpu=0.93 daily="RU2_DO"
 
New "Load.BT_2819390_M1" bus1="UC2819390.1.4" phases=1 conn=delta model=2 kv=0.22 kw = 0.633426740694441 pf=0.92 status=variable vmaxpu=1.5 vminpu=0.93 daily="RU8_DO" 
New "Load.BT_2819390_M2" bus1="UC2819390.1.4" phases=1 conn=delta model=3 kv=0.22 kw = 0.633426740694441 pf=0.92 status=variable vmaxpu=1.5 vminpu=0.93 daily="RU8_DO"
 
New "Load.BT_2819375_M1" bus1="UC2819375.1.4" phases=1 conn=delta model=2 kv=0.22 kw = 0.0017144481433438797 pf=0.92 status=variable vmaxpu=1.5 vminpu=0.93 daily="RU2_DO" 
New "Load.BT_2819375_M2" bus1="UC2819375.1.4" phases=1 conn=delta model=3 kv=0.22 kw = 0.0017144481433438797 pf=0.92 status=variable vmaxpu=1.5 vminpu=0.93 daily="RU2_DO"
 
New "Load.BT_2819355_M1" bus1="UC2819355.1.4" phases=1 conn=delta model=2 kv=0.22 kw = 0.003710612959102269 pf=0.92 status=variable vmaxpu=1.5 vminpu=0.93 daily="RU1_DO" 
New "Load.BT_2819355_M2" bus1="UC2819355.1.4" phases=1 conn=delta model=3 kv=0.22 kw = 0.003710612959102269 pf=0.92 status=variable vmaxpu=1.5 vminpu=0.93 daily="RU1_DO"
 
New "Load.BT_2822268_M1" bus1="UC2822268.2.4" phases=1 conn=delta model=2 kv=0.22 kw = 0.1862362451702816 pf=0.92 status=variable vmaxpu=1.5 vminpu=0.93 daily="RU6_DO" 
New "Load.BT_2822268_M2" bus1="UC2822268.2.4" phases=1 conn=delta model=3 kv=0.22 kw = 0.1862362451702816 pf=0.92 status=variable vmaxpu=1.5 vminpu=0.93 daily="RU6_DO"
 
New "Load.BT_2806028_M1" bus1="UC2806028.2.4" phases=1 conn=delta model=2 kv=0.22 kw = 0.19124259584690206 pf=0.92 status=variable vmaxpu=1.5 vminpu=0.93 daily="RU6_DO" 
New "Load.BT_2806028_M2" bus1="UC2806028.2.4" phases=1 conn=delta model=3 kv=0.22 kw = 0.19124259584690206 pf=0.92 status=variable vmaxpu=1.5 vminpu=0.93 daily="RU6_DO"
 
New "Load.BT_2806039_M1" bus1="UC2806039.1.2.3.4" phases=3 conn=delta model=2 kv=0.38 kw = 0.8037948212185719 pf=0.92 status=variable vmaxpu=1.5 vminpu=0.93 daily="RU7_DO" 
New "Load.BT_2806039_M2" bus1="UC2806039.1.2.3.4" phases=3 conn=delta model=3 kv=0.38 kw = 0.8037948212185719 pf=0.92 status=variable vmaxpu=1.5 vminpu=0.93 daily="RU7_DO"
 
New "Load.BT_2805793_M1" bus1="UC2805793.2.4" phases=1 conn=delta model=2 kv=0.22 kw = 0.1440025856496445 pf=0.92 status=variable vmaxpu=1.5 vminpu=0.93 daily="RU4_DO" 
New "Load.BT_2805793_M2" bus1="UC2805793.2.4" phases=1 conn=delta model=3 kv=0.22 kw = 0.1440025856496445 pf=0.92 status=variable vmaxpu=1.5 vminpu=0.93 daily="RU4_DO"
 
New "Load.BT_2805784_M1" bus1="UC2805784.1.4" phases=1 conn=delta model=2 kv=0.22 kw = 0.17503454545186076 pf=0.92 status=variable vmaxpu=1.5 vminpu=0.93 daily="RU5_DO" 
New "Load.BT_2805784_M2" bus1="UC2805784.1.4" phases=1 conn=delta model=3 kv=0.22 kw = 0.17503454545186076 pf=0.92 status=variable vmaxpu=1.5 vminpu=0.93 daily="RU5_DO"
 
New "Load.BT_2805785_M1" bus1="UC2805785.1.4" phases=1 conn=delta model=2 kv=0.22 kw = 0.013715585146751037 pf=0.92 status=variable vmaxpu=1.5 vminpu=0.93 daily="RU2_DO" 
New "Load.BT_2805785_M2" bus1="UC2805785.1.4" phases=1 conn=delta model=3 kv=0.22 kw = 0.013715585146751037 pf=0.92 status=variable vmaxpu=1.5 vminpu=0.93 daily="RU2_DO"
 
New "Load.BT_2805790_M1" bus1="UC2805790.2.4" phases=1 conn=delta model=2 kv=0.22 kw = 0.11634032661770384 pf=0.92 status=variable vmaxpu=1.5 vminpu=0.93 daily="RU5_DO" 
New "Load.BT_2805790_M2" bus1="UC2805790.2.4" phases=1 conn=delta model=3 kv=0.22 kw = 0.11634032661770384 pf=0.92 status=variable vmaxpu=1.5 vminpu=0.93 daily="RU5_DO"
 
New "Load.BT_2805782_M1" bus1="UC2805782.2.4" phases=1 conn=delta model=2 kv=0.22 kw = 0.11034809736079627 pf=0.92 status=variable vmaxpu=1.5 vminpu=0.93 daily="RU8_DO" 
New "Load.BT_2805782_M2" bus1="UC2805782.2.4" phases=1 conn=delta model=3 kv=0.22 kw = 0.11034809736079627 pf=0.92 status=variable vmaxpu=1.5 vminpu=0.93 daily="RU8_DO"
 
New "Load.BT_2805766_M1" bus1="UC2805766.2.4" phases=1 conn=delta model=2 kv=0.22 kw = 0.09712320312643719 pf=0.92 status=variable vmaxpu=1.5 vminpu=0.93 daily="RU6_DO" 
New "Load.BT_2805766_M2" bus1="UC2805766.2.4" phases=1 conn=delta model=3 kv=0.22 kw = 0.09712320312643719 pf=0.92 status=variable vmaxpu=1.5 vminpu=0.93 daily="RU6_DO"
 
New "Load.BT_2817050_M1" bus1="UC2817050.2.4" phases=1 conn=delta model=2 kv=0.22 kw = 0.10940785711427323 pf=0.92 status=variable vmaxpu=1.5 vminpu=0.93 daily="RU7_DO" 
New "Load.BT_2817050_M2" bus1="UC2817050.2.4" phases=1 conn=delta model=3 kv=0.22 kw = 0.10940785711427323 pf=0.92 status=variable vmaxpu=1.5 vminpu=0.93 daily="RU7_DO"
 
New "Load.BT_2818311_M1" bus1="UC2818311.2.4" phases=1 conn=delta model=2 kv=0.22 kw = 0.04766165838495986 pf=0.92 status=variable vmaxpu=1.5 vminpu=0.93 daily="RU2_DO" 
New "Load.BT_2818311_M2" bus1="UC2818311.2.4" phases=1 conn=delta model=3 kv=0.22 kw = 0.04766165838495986 pf=0.92 status=variable vmaxpu=1.5 vminpu=0.93 daily="RU2_DO"
 
New "Load.BT_2825858_M1" bus1="UC2825858.2.4" phases=1 conn=delta model=2 kv=0.22 kw = 0.17018487394957987 pf=0.92 status=variable vmaxpu=1.5 vminpu=0.93 daily="RU4_DO" 
New "Load.BT_2825858_M2" bus1="UC2825858.2.4" phases=1 conn=delta model=3 kv=0.22 kw = 0.17018487394957987 pf=0.92 status=variable vmaxpu=1.5 vminpu=0.93 daily="RU4_DO"
 
New "Load.BT_2817028_M1" bus1="UC2817028.1.4" phases=1 conn=delta model=2 kv=0.22 kw = 0.5789692381008013 pf=0.92 status=variable vmaxpu=1.5 vminpu=0.93 daily="RU8_DO" 
New "Load.BT_2817028_M2" bus1="UC2817028.1.4" phases=1 conn=delta model=3 kv=0.22 kw = 0.5789692381008013 pf=0.92 status=variable vmaxpu=1.5 vminpu=0.93 daily="RU8_DO"
 
New "Load.BT_2817013_M1" bus1="UC2817013.1.4" phases=1 conn=delta model=2 kv=0.22 kw = 0.06244149155449875 pf=0.92 status=variable vmaxpu=1.5 vminpu=0.93 daily="RU3_DO" 
New "Load.BT_2817013_M2" bus1="UC2817013.1.4" phases=1 conn=delta model=3 kv=0.22 kw = 0.06244149155449875 pf=0.92 status=variable vmaxpu=1.5 vminpu=0.93 daily="RU3_DO"
 
New "Load.BT_226211_M1" bus1="UC226211.1.4" phases=1 conn=delta model=2 kv=0.22 kw = 0.05726256798768558 pf=0.92 status=variable vmaxpu=1.5 vminpu=0.93 daily="RU2_DO" 
New "Load.BT_226211_M2" bus1="UC226211.1.4" phases=1 conn=delta model=3 kv=0.22 kw = 0.05726256798768558 pf=0.92 status=variable vmaxpu=1.5 vminpu=0.93 daily="RU2_DO"
 
New "Load.BT_205798_M1" bus1="UC205798.1.4" phases=1 conn=delta model=2 kv=0.22 kw = 0.016769776809759114 pf=0.92 status=variable vmaxpu=1.5 vminpu=0.93 daily="RU5_DO" 
New "Load.BT_205798_M2" bus1="UC205798.1.4" phases=1 conn=delta model=3 kv=0.22 kw = 0.016769776809759114 pf=0.92 status=variable vmaxpu=1.5 vminpu=0.93 daily="RU5_DO"
 
New "Load.BT_221678_M1" bus1="UC221678.1.4" phases=1 conn=delta model=2 kv=0.22 kw = 0.08003064410506176 pf=0.92 status=variable vmaxpu=1.5 vminpu=0.93 daily="RU3_DO" 
New "Load.BT_221678_M2" bus1="UC221678.1.4" phases=1 conn=delta model=3 kv=0.22 kw = 0.08003064410506176 pf=0.92 status=variable vmaxpu=1.5 vminpu=0.93 daily="RU3_DO"
 
New "Load.BT_205762_M1" bus1="UC205762.2.4" phases=1 conn=delta model=2 kv=0.22 kw = 0.35028160705134254 pf=0.92 status=variable vmaxpu=1.5 vminpu=0.93 daily="RU7_DO" 
New "Load.BT_205762_M2" bus1="UC205762.2.4" phases=1 conn=delta model=3 kv=0.22 kw = 0.35028160705134254 pf=0.92 status=variable vmaxpu=1.5 vminpu=0.93 daily="RU7_DO"
 
New "Load.BT_205763_M1" bus1="UC205763.1.2.4" phases=2 conn=delta model=2 kv=0.44 kw = 0.37731997821958 pf=0.92 status=variable vmaxpu=1.5 vminpu=0.93 daily="RU5_DO" 
New "Load.BT_205763_M2" bus1="UC205763.1.2.4" phases=2 conn=delta model=3 kv=0.44 kw = 0.37731997821958 pf=0.92 status=variable vmaxpu=1.5 vminpu=0.93 daily="RU5_DO"
 
New "Load.BT_205767_M1" bus1="UC205767.1.2.4" phases=2 conn=delta model=2 kv=0.44 kw = 0.060348574645704575 pf=0.92 status=variable vmaxpu=1.5 vminpu=0.93 daily="RU2_DO" 
New "Load.BT_205767_M2" bus1="UC205767.1.2.4" phases=2 conn=delta model=3 kv=0.44 kw = 0.060348574645704575 pf=0.92 status=variable vmaxpu=1.5 vminpu=0.93 daily="RU2_DO"
 
New "Load.BT_221287_M1" bus1="UC221287.1.2.3.4" phases=3 conn=delta model=2 kv=0.38 kw = 0.06583480870440499 pf=0.92 status=variable vmaxpu=1.5 vminpu=0.93 daily="RU2_DO" 
New "Load.BT_221287_M2" bus1="UC221287.1.2.3.4" phases=3 conn=delta model=3 kv=0.38 kw = 0.06583480870440499 pf=0.92 status=variable vmaxpu=1.5 vminpu=0.93 daily="RU2_DO"
 
New "Load.BT_205749_M1" bus1="UC205749.1.2.4" phases=2 conn=delta model=2 kv=0.44 kw = 0.1891681669042222 pf=0.92 status=variable vmaxpu=1.5 vminpu=0.93 daily="RU8_DO" 
New "Load.BT_205749_M2" bus1="UC205749.1.2.4" phases=2 conn=delta model=3 kv=0.44 kw = 0.1891681669042222 pf=0.92 status=variable vmaxpu=1.5 vminpu=0.93 daily="RU8_DO"
 
New "Load.BT_205751_M1" bus1="UC205751.2.4" phases=1 conn=delta model=2 kv=0.22 kw = 0.1248693749689225 pf=0.92 status=variable vmaxpu=1.5 vminpu=0.93 daily="RU4_DO" 
New "Load.BT_205751_M2" bus1="UC205751.2.4" phases=1 conn=delta model=3 kv=0.22 kw = 0.1248693749689225 pf=0.92 status=variable vmaxpu=1.5 vminpu=0.93 daily="RU4_DO"
 
New "Load.BT_205752_M1" bus1="UC205752.1.2.3.4" phases=3 conn=delta model=2 kv=0.38 kw = 0.019454213657007606 pf=0.92 status=variable vmaxpu=1.5 vminpu=0.93 daily="RU1_DO" 
New "Load.BT_205752_M2" bus1="UC205752.1.2.3.4" phases=3 conn=delta model=3 kv=0.38 kw = 0.019454213657007606 pf=0.92 status=variable vmaxpu=1.5 vminpu=0.93 daily="RU1_DO"
 
New "Load.BT_205753_M1" bus1="UC205753.2.4" phases=1 conn=delta model=2 kv=0.22 kw = 0.028925164846227407 pf=0.92 status=variable vmaxpu=1.5 vminpu=0.93 daily="CO6_DO" 
New "Load.BT_205753_M2" bus1="UC205753.2.4" phases=1 conn=delta model=3 kv=0.22 kw = 0.028925164846227407 pf=0.92 status=variable vmaxpu=1.5 vminpu=0.93 daily="CO6_DO"
 
New "Load.BT_205754_M1" bus1="UC205754.1.2.3.4" phases=3 conn=delta model=2 kv=0.38 kw = 0.2737206051417155 pf=0.92 status=variable vmaxpu=1.5 vminpu=0.93 daily="RU8_DO" 
New "Load.BT_205754_M2" bus1="UC205754.1.2.3.4" phases=3 conn=delta model=3 kv=0.38 kw = 0.2737206051417155 pf=0.92 status=variable vmaxpu=1.5 vminpu=0.93 daily="RU8_DO"
 
New "Load.BT_205755_M1" bus1="UC205755.1.4" phases=1 conn=delta model=2 kv=0.22 kw = 0.17237369499551766 pf=0.92 status=variable vmaxpu=1.5 vminpu=0.93 daily="RU3_DO" 
New "Load.BT_205755_M2" bus1="UC205755.1.4" phases=1 conn=delta model=3 kv=0.22 kw = 0.17237369499551766 pf=0.92 status=variable vmaxpu=1.5 vminpu=0.93 daily="RU3_DO"
 
New "Load.BT_205747_M1" bus1="UC205747.1.4" phases=1 conn=delta model=2 kv=0.22 kw = 0.007103173378852914 pf=0.92 status=variable vmaxpu=1.5 vminpu=0.93 daily="RU1_DO" 
New "Load.BT_205747_M2" bus1="UC205747.1.4" phases=1 conn=delta model=3 kv=0.22 kw = 0.007103173378852914 pf=0.92 status=variable vmaxpu=1.5 vminpu=0.93 daily="RU1_DO"
 
New "Load.BT_205746_M1" bus1="UC205746.1.4" phases=1 conn=delta model=2 kv=0.22 kw = 0.04012658085847138 pf=0.92 status=variable vmaxpu=1.5 vminpu=0.93 daily="RU8_DO" 
New "Load.BT_205746_M2" bus1="UC205746.1.4" phases=1 conn=delta model=3 kv=0.22 kw = 0.04012658085847138 pf=0.92 status=variable vmaxpu=1.5 vminpu=0.93 daily="RU8_DO"
 
New "Load.BT_220652_M1" bus1="UC220652.1.4" phases=1 conn=delta model=2 kv=0.22 kw = 0.17503454545186076 pf=0.92 status=variable vmaxpu=1.5 vminpu=0.93 daily="RU5_DO" 
New "Load.BT_220652_M2" bus1="UC220652.1.4" phases=1 conn=delta model=3 kv=0.22 kw = 0.17503454545186076 pf=0.92 status=variable vmaxpu=1.5 vminpu=0.93 daily="RU5_DO"
 
New "Load.BT_221021_M1" bus1="UC221021.1.4" phases=1 conn=delta model=2 kv=0.22 kw = 0.044918541355609645 pf=0.92 status=variable vmaxpu=1.5 vminpu=0.93 daily="RU2_DO" 
New "Load.BT_221021_M2" bus1="UC221021.1.4" phases=1 conn=delta model=3 kv=0.22 kw = 0.044918541355609645 pf=0.92 status=variable vmaxpu=1.5 vminpu=0.93 daily="RU2_DO"
 
New "Load.BT_205739_M1" bus1="UC205739.1.4" phases=1 conn=delta model=2 kv=0.22 kw = 0.4196143404050213 pf=0.92 status=variable vmaxpu=1.5 vminpu=0.93 daily="RE5_DO" 
New "Load.BT_205739_M2" bus1="UC205739.1.4" phases=1 conn=delta model=3 kv=0.22 kw = 0.4196143404050213 pf=0.92 status=variable vmaxpu=1.5 vminpu=0.93 daily="RE5_DO"
 
New "Load.BT_205744_M1" bus1="UC205744.1.2.3.4" phases=3 conn=delta model=2 kv=0.38 kw = 0.22953632008357783 pf=0.92 status=variable vmaxpu=1.5 vminpu=0.93 daily="RU5_DO" 
New "Load.BT_205744_M2" bus1="UC205744.1.2.3.4" phases=3 conn=delta model=3 kv=0.38 kw = 0.22953632008357783 pf=0.92 status=variable vmaxpu=1.5 vminpu=0.93 daily="RU5_DO"
 
New "Load.BT_205745_M1" bus1="UC205745.1.2.3.4" phases=3 conn=delta model=2 kv=0.38 kw = 0.1746996428115008 pf=0.92 status=variable vmaxpu=1.5 vminpu=0.93 daily="RU7_DO" 
New "Load.BT_205745_M2" bus1="UC205745.1.2.3.4" phases=3 conn=delta model=3 kv=0.38 kw = 0.1746996428115008 pf=0.92 status=variable vmaxpu=1.5 vminpu=0.93 daily="RU7_DO"
 
New "Load.BT_205737_M1" bus1="UC205737.2.4" phases=1 conn=delta model=2 kv=0.22 kw = 0.36103883599170633 pf=0.92 status=variable vmaxpu=1.5 vminpu=0.93 daily="RE6_DO" 
New "Load.BT_205737_M2" bus1="UC205737.2.4" phases=1 conn=delta model=3 kv=0.22 kw = 0.36103883599170633 pf=0.92 status=variable vmaxpu=1.5 vminpu=0.93 daily="RE6_DO"
 
New "Load.BT_225866_M1" bus1="UC225866.1.2.3.4" phases=3 conn=delta model=2 kv=0.38 kw = 0.19963688144889033 pf=0.92 status=variable vmaxpu=1.5 vminpu=0.93 daily="RU3_DO" 
New "Load.BT_225866_M2" bus1="UC225866.1.2.3.4" phases=3 conn=delta model=3 kv=0.38 kw = 0.19963688144889033 pf=0.92 status=variable vmaxpu=1.5 vminpu=0.93 daily="RU3_DO"
 
New "Load.BT_228021_M1" bus1="UC228021.2.4" phases=1 conn=delta model=2 kv=0.22 kw = 0.24772472776092688 pf=0.92 status=variable vmaxpu=1.5 vminpu=0.93 daily="RU4_DO" 
New "Load.BT_228021_M2" bus1="UC228021.2.4" phases=1 conn=delta model=3 kv=0.22 kw = 0.24772472776092688 pf=0.92 status=variable vmaxpu=1.5 vminpu=0.93 daily="RU4_DO"
 
New "Load.BT_223629_M1" bus1="UC223629.1.4" phases=1 conn=delta model=2 kv=0.22 kw = 0.0 pf=0.92 status=variable vmaxpu=1.5 vminpu=0.93 daily="RE1_DO" 
New "Load.BT_223629_M2" bus1="UC223629.1.4" phases=1 conn=delta model=3 kv=0.22 kw = 0.0 pf=0.92 status=variable vmaxpu=1.5 vminpu=0.93 daily="RE1_DO"
 
New "Load.BT_217024_M1" bus1="UC217024.1.4" phases=1 conn=delta model=2 kv=0.22 kw = 0.14558303567625067 pf=0.92 status=variable vmaxpu=1.5 vminpu=0.93 daily="RU7_DO" 
New "Load.BT_217024_M2" bus1="UC217024.1.4" phases=1 conn=delta model=3 kv=0.22 kw = 0.14558303567625067 pf=0.92 status=variable vmaxpu=1.5 vminpu=0.93 daily="RU7_DO"
 
New "Load.BT_223627_M1" bus1="UC223627.2.4" phases=1 conn=delta model=2 kv=0.22 kw = 0.10748191301376261 pf=0.92 status=variable vmaxpu=1.5 vminpu=0.93 daily="RU8_DO" 
New "Load.BT_223627_M2" bus1="UC223627.2.4" phases=1 conn=delta model=3 kv=0.22 kw = 0.10748191301376261 pf=0.92 status=variable vmaxpu=1.5 vminpu=0.93 daily="RU8_DO"
 
New "Load.BT_205672_M1" bus1="UC205672.1.4" phases=1 conn=delta model=2 kv=0.22 kw = 0.07609653028463119 pf=0.92 status=variable vmaxpu=1.5 vminpu=0.93 daily="RU6_DO" 
New "Load.BT_205672_M2" bus1="UC205672.1.4" phases=1 conn=delta model=3 kv=0.22 kw = 0.07609653028463119 pf=0.92 status=variable vmaxpu=1.5 vminpu=0.93 daily="RU6_DO"
 
New "Load.BT_205673_M1" bus1="UC205673.2.4" phases=1 conn=delta model=2 kv=0.22 kw = 0.20845129531102383 pf=0.92 status=variable vmaxpu=1.5 vminpu=0.93 daily="RU4_DO" 
New "Load.BT_205673_M2" bus1="UC205673.2.4" phases=1 conn=delta model=3 kv=0.22 kw = 0.20845129531102383 pf=0.92 status=variable vmaxpu=1.5 vminpu=0.93 daily="RU4_DO"
 
New "Load.BT_205666_M1" bus1="UC205666.1.2.3.4" phases=3 conn=delta model=2 kv=0.38 kw = 0.34083229089676326 pf=0.92 status=variable vmaxpu=1.5 vminpu=0.93 daily="RU2_DO" 
New "Load.BT_205666_M2" bus1="UC205666.1.2.3.4" phases=3 conn=delta model=3 kv=0.38 kw = 0.34083229089676326 pf=0.92 status=variable vmaxpu=1.5 vminpu=0.93 daily="RU2_DO"
 
New "Load.BT_205668_M1" bus1="UC205668.1.4" phases=1 conn=delta model=2 kv=0.22 kw = 0.017651915934015078 pf=0.92 status=variable vmaxpu=1.5 vminpu=0.93 daily="RU1_DO" 
New "Load.BT_205668_M2" bus1="UC205668.1.4" phases=1 conn=delta model=3 kv=0.22 kw = 0.017651915934015078 pf=0.92 status=variable vmaxpu=1.5 vminpu=0.93 daily="RU1_DO"
 
New "Load.BT_205669_M1" bus1="UC205669.2.4" phases=1 conn=delta model=2 kv=0.22 kw = 0.04133450849382311 pf=0.92 status=variable vmaxpu=1.5 vminpu=0.93 daily="RU3_DO" 
New "Load.BT_205669_M2" bus1="UC205669.2.4" phases=1 conn=delta model=3 kv=0.22 kw = 0.04133450849382311 pf=0.92 status=variable vmaxpu=1.5 vminpu=0.93 daily="RU3_DO"
 
New "Load.BT_205670_M1" bus1="UC205670.2.4" phases=1 conn=delta model=2 kv=0.22 kw = 0.08559594251901946 pf=0.92 status=variable vmaxpu=1.5 vminpu=0.93 daily="RU4_DO" 
New "Load.BT_205670_M2" bus1="UC205670.2.4" phases=1 conn=delta model=3 kv=0.22 kw = 0.08559594251901946 pf=0.92 status=variable vmaxpu=1.5 vminpu=0.93 daily="RU4_DO"
 
New "Load.BT_205671_M1" bus1="UC205671.2.4" phases=1 conn=delta model=2 kv=0.22 kw = 0.3668715964203097 pf=0.92 status=variable vmaxpu=1.5 vminpu=0.93 daily="RU8_DO" 
New "Load.BT_205671_M2" bus1="UC205671.2.4" phases=1 conn=delta model=3 kv=0.22 kw = 0.3668715964203097 pf=0.92 status=variable vmaxpu=1.5 vminpu=0.93 daily="RU8_DO"
 
New "Load.BT_206078_M1" bus1="UC206078.1.4" phases=1 conn=delta model=2 kv=0.22 kw = 0.00524786689930178 pf=0.92 status=variable vmaxpu=1.5 vminpu=0.93 daily="RU1_DO" 
New "Load.BT_206078_M2" bus1="UC206078.1.4" phases=1 conn=delta model=3 kv=0.22 kw = 0.00524786689930178 pf=0.92 status=variable vmaxpu=1.5 vminpu=0.93 daily="RU1_DO"
 
New "Load.BT_206080_M1" bus1="UC206080.2.4" phases=1 conn=delta model=2 kv=0.22 kw = 0.3665520361990951 pf=0.92 status=variable vmaxpu=1.5 vminpu=0.93 daily="RU4_DO" 
New "Load.BT_206080_M2" bus1="UC206080.2.4" phases=1 conn=delta model=3 kv=0.22 kw = 0.3665520361990951 pf=0.92 status=variable vmaxpu=1.5 vminpu=0.93 daily="RU4_DO"
 
New "Load.BT_205662_M1" bus1="UC205662.1.4" phases=1 conn=delta model=2 kv=0.22 kw = 0.48962109617348226 pf=0.92 status=variable vmaxpu=1.5 vminpu=0.93 daily="RU6_DO" 
New "Load.BT_205662_M2" bus1="UC205662.1.4" phases=1 conn=delta model=3 kv=0.22 kw = 0.48962109617348226 pf=0.92 status=variable vmaxpu=1.5 vminpu=0.93 daily="RU6_DO"
 
New "Load.BT_205664_M1" bus1="UC205664.1.2.4" phases=2 conn=delta model=2 kv=0.44 kw = 0.0958608814005685 pf=0.92 status=variable vmaxpu=1.5 vminpu=0.93 daily="RU3_DO" 
New "Load.BT_205664_M2" bus1="UC205664.1.2.4" phases=2 conn=delta model=3 kv=0.44 kw = 0.0958608814005685 pf=0.92 status=variable vmaxpu=1.5 vminpu=0.93 daily="RU3_DO"
 
New "Load.BT_205655_M1" bus1="UC205655.1.4" phases=1 conn=delta model=2 kv=0.22 kw = 0.16560154599637125 pf=0.92 status=variable vmaxpu=1.5 vminpu=0.93 daily="RU5_DO" 
New "Load.BT_205655_M2" bus1="UC205655.1.4" phases=1 conn=delta model=3 kv=0.22 kw = 0.16560154599637125 pf=0.92 status=variable vmaxpu=1.5 vminpu=0.93 daily="RU5_DO"
 
New "Load.BT_205658_M1" bus1="UC205658.1.4" phases=1 conn=delta model=2 kv=0.22 kw = 0.21650738401869626 pf=0.92 status=variable vmaxpu=1.5 vminpu=0.93 daily="RU4_DO" 
New "Load.BT_205658_M2" bus1="UC205658.1.4" phases=1 conn=delta model=3 kv=0.22 kw = 0.21650738401869626 pf=0.92 status=variable vmaxpu=1.5 vminpu=0.93 daily="RU4_DO"
 
New "Load.BT_205659_M1" bus1="UC205659.1.2.3.4" phases=3 conn=delta model=2 kv=0.38 kw = 0.24087374993706928 pf=0.92 status=variable vmaxpu=1.5 vminpu=0.93 daily="RU7_DO" 
New "Load.BT_205659_M2" bus1="UC205659.1.2.3.4" phases=3 conn=delta model=3 kv=0.38 kw = 0.24087374993706928 pf=0.92 status=variable vmaxpu=1.5 vminpu=0.93 daily="RU7_DO"
 
New "Load.BT_206061_M1" bus1="UC206061.1.4" phases=1 conn=delta model=2 kv=0.22 kw = 0.05739963204216599 pf=0.92 status=variable vmaxpu=1.5 vminpu=0.93 daily="RU4_DO" 
New "Load.BT_206061_M2" bus1="UC206061.1.4" phases=1 conn=delta model=3 kv=0.22 kw = 0.05739963204216599 pf=0.92 status=variable vmaxpu=1.5 vminpu=0.93 daily="RU4_DO"
 
New "Load.BT_205649_M1" bus1="UC205649.1.2.3.4" phases=3 conn=delta model=2 kv=0.38 kw = 0.23217681366743195 pf=0.92 status=variable vmaxpu=1.5 vminpu=0.93 daily="RU3_DO" 
New "Load.BT_205649_M2" bus1="UC205649.1.2.3.4" phases=3 conn=delta model=3 kv=0.38 kw = 0.23217681366743195 pf=0.92 status=variable vmaxpu=1.5 vminpu=0.93 daily="RU3_DO"
 
New "Load.BT_205650_M1" bus1="UC205650.1.4" phases=1 conn=delta model=2 kv=0.22 kw = 0.11614733569759499 pf=0.92 status=variable vmaxpu=1.5 vminpu=0.93 daily="RU6_DO" 
New "Load.BT_205650_M2" bus1="UC205650.1.4" phases=1 conn=delta model=3 kv=0.22 kw = 0.11614733569759499 pf=0.92 status=variable vmaxpu=1.5 vminpu=0.93 daily="RU6_DO"
 
New "Load.BT_205651_M1" bus1="UC205651.1.2.3.4" phases=3 conn=delta model=2 kv=0.38 kw = 0.4411607141704565 pf=0.92 status=variable vmaxpu=1.5 vminpu=0.93 daily="RU7_DO" 
New "Load.BT_205651_M2" bus1="UC205651.1.2.3.4" phases=3 conn=delta model=3 kv=0.38 kw = 0.4411607141704565 pf=0.92 status=variable vmaxpu=1.5 vminpu=0.93 daily="RU7_DO"
 
New "Load.BT_205653_M1" bus1="UC205653.1.2.3.4" phases=3 conn=delta model=2 kv=0.38 kw = 0.05015822607308921 pf=0.92 status=variable vmaxpu=1.5 vminpu=0.93 daily="RU8_DO" 
New "Load.BT_205653_M2" bus1="UC205653.1.2.3.4" phases=3 conn=delta model=3 kv=0.38 kw = 0.05015822607308921 pf=0.92 status=variable vmaxpu=1.5 vminpu=0.93 daily="RU8_DO"
 
New "Load.BT_205654_M1" bus1="UC205654.1.4" phases=1 conn=delta model=2 kv=0.22 kw = 0.020567397544738287 pf=0.92 status=variable vmaxpu=1.5 vminpu=0.93 daily="RU1_DO" 
New "Load.BT_205654_M2" bus1="UC205654.1.4" phases=1 conn=delta model=3 kv=0.22 kw = 0.020567397544738287 pf=0.92 status=variable vmaxpu=1.5 vminpu=0.93 daily="RU1_DO"
 
New "Load.BT_205648_M1" bus1="UC205648.1.4" phases=1 conn=delta model=2 kv=0.22 kw = 0.24009193231518533 pf=0.92 status=variable vmaxpu=1.5 vminpu=0.93 daily="RU3_DO" 
New "Load.BT_205648_M2" bus1="UC205648.1.4" phases=1 conn=delta model=3 kv=0.22 kw = 0.24009193231518533 pf=0.92 status=variable vmaxpu=1.5 vminpu=0.93 daily="RU3_DO"
 
New "Load.BT_205645_M1" bus1="UC205645.2.4" phases=1 conn=delta model=2 kv=0.22 kw = 0.15764013908685184 pf=0.92 status=variable vmaxpu=1.5 vminpu=0.93 daily="RU8_DO" 
New "Load.BT_205645_M2" bus1="UC205645.2.4" phases=1 conn=delta model=3 kv=0.22 kw = 0.15764013908685184 pf=0.92 status=variable vmaxpu=1.5 vminpu=0.93 daily="RU8_DO"
 
New "Load.BT_222266_M1" bus1="UC222266.2.4" phases=1 conn=delta model=2 kv=0.22 kw = 0.05074766504297884 pf=0.92 status=variable vmaxpu=1.5 vminpu=0.93 daily="RU2_DO" 
New "Load.BT_222266_M2" bus1="UC222266.2.4" phases=1 conn=delta model=3 kv=0.22 kw = 0.05074766504297884 pf=0.92 status=variable vmaxpu=1.5 vminpu=0.93 daily="RU2_DO"
 
New "Load.BT_205731_M1" bus1="UC205731.1.4" phases=1 conn=delta model=2 kv=0.22 kw = 0.021706094405938653 pf=0.92 status=variable vmaxpu=1.5 vminpu=0.93 daily="CO4_DO" 
New "Load.BT_205731_M2" bus1="UC205731.1.4" phases=1 conn=delta model=3 kv=0.22 kw = 0.021706094405938653 pf=0.92 status=variable vmaxpu=1.5 vminpu=0.93 daily="CO4_DO"
 
New "Load.BT_205734_M1" bus1="UC205734.1.2.4" phases=2 conn=delta model=2 kv=0.44 kw = 0.3661633927614789 pf=0.92 status=variable vmaxpu=1.5 vminpu=0.93 daily="RU7_DO" 
New "Load.BT_205734_M2" bus1="UC205734.1.2.4" phases=2 conn=delta model=3 kv=0.44 kw = 0.3661633927614789 pf=0.92 status=variable vmaxpu=1.5 vminpu=0.93 daily="RU7_DO"
 
New "Load.BT_219392_M1" bus1="UC219392.1.4" phases=1 conn=delta model=2 kv=0.22 kw = 0.1251587669155118 pf=0.92 status=variable vmaxpu=1.5 vminpu=0.93 daily="RU6_DO" 
New "Load.BT_219392_M2" bus1="UC219392.1.4" phases=1 conn=delta model=3 kv=0.22 kw = 0.1251587669155118 pf=0.92 status=variable vmaxpu=1.5 vminpu=0.93 daily="RU6_DO"
 
New "Load.BT_219394_M1" bus1="UC219394.1.4" phases=1 conn=delta model=2 kv=0.22 kw = 0.11143912931735218 pf=0.92 status=variable vmaxpu=1.5 vminpu=0.93 daily="RU2_DO" 
New "Load.BT_219394_M2" bus1="UC219394.1.4" phases=1 conn=delta model=3 kv=0.22 kw = 0.11143912931735218 pf=0.92 status=variable vmaxpu=1.5 vminpu=0.93 daily="RU2_DO"
 
New "Load.BT_219377_M1" bus1="UC219377.1.2.4" phases=2 conn=delta model=2 kv=0.44 kw = 1.6409675487309365 pf=0.92 status=variable vmaxpu=1.5 vminpu=0.93 daily="PP7_DO" 
New "Load.BT_219377_M2" bus1="UC219377.1.2.4" phases=2 conn=delta model=3 kv=0.44 kw = 1.6409675487309365 pf=0.92 status=variable vmaxpu=1.5 vminpu=0.93 daily="PP7_DO"
 
New "Load.BT_219381_M1" bus1="UC219381.1.4" phases=1 conn=delta model=2 kv=0.22 kw = 0.08266901698764623 pf=0.92 status=variable vmaxpu=1.5 vminpu=0.93 daily="RU3_DO" 
New "Load.BT_219381_M2" bus1="UC219381.1.4" phases=1 conn=delta model=3 kv=0.22 kw = 0.08266901698764623 pf=0.92 status=variable vmaxpu=1.5 vminpu=0.93 daily="RU3_DO"
 
New "Load.BT_219384_M1" bus1="UC219384.1.4" phases=1 conn=delta model=2 kv=0.22 kw = 0.13103918650169455 pf=0.92 status=variable vmaxpu=1.5 vminpu=0.93 daily="RU3_DO" 
New "Load.BT_219384_M2" bus1="UC219384.1.4" phases=1 conn=delta model=3 kv=0.22 kw = 0.13103918650169455 pf=0.92 status=variable vmaxpu=1.5 vminpu=0.93 daily="RU3_DO"
 
New "Load.BT_225587_M1" bus1="UC225587.1.4" phases=1 conn=delta model=2 kv=0.22 kw = 0.13543647463933534 pf=0.92 status=variable vmaxpu=1.5 vminpu=0.93 daily="RU3_DO" 
New "Load.BT_225587_M2" bus1="UC225587.1.4" phases=1 conn=delta model=3 kv=0.22 kw = 0.13543647463933534 pf=0.92 status=variable vmaxpu=1.5 vminpu=0.93 daily="RU3_DO"
 
New "Load.BT_205729_M1" bus1="UC205729.1.2.4" phases=2 conn=delta model=2 kv=0.44 kw = 0.08911304204384442 pf=0.92 status=variable vmaxpu=1.5 vminpu=0.93 daily="RU6_DO" 
New "Load.BT_205729_M2" bus1="UC205729.1.2.4" phases=2 conn=delta model=3 kv=0.44 kw = 0.08911304204384442 pf=0.92 status=variable vmaxpu=1.5 vminpu=0.93 daily="RU6_DO"
 
New "Load.BT_205730_M1" bus1="UC205730.2.4" phases=1 conn=delta model=2 kv=0.22 kw = 0.20493218081290737 pf=0.92 status=variable vmaxpu=1.5 vminpu=0.93 daily="RU8_DO" 
New "Load.BT_205730_M2" bus1="UC205730.2.4" phases=1 conn=delta model=3 kv=0.22 kw = 0.20493218081290737 pf=0.92 status=variable vmaxpu=1.5 vminpu=0.93 daily="RU8_DO"
 
New "Load.BT_205717_M1" bus1="UC205717.1.2.3.4" phases=3 conn=delta model=2 kv=0.38 kw = 0.11432949157865968 pf=0.92 status=variable vmaxpu=1.5 vminpu=0.93 daily="RU3_DO" 
New "Load.BT_205717_M2" bus1="UC205717.1.2.3.4" phases=3 conn=delta model=3 kv=0.38 kw = 0.11432949157865968 pf=0.92 status=variable vmaxpu=1.5 vminpu=0.93 daily="RU3_DO"
 
New "Load.BT_205719_M1" bus1="UC205719.2.4" phases=1 conn=delta model=2 kv=0.22 kw = 0.12830305741854028 pf=0.92 status=variable vmaxpu=1.5 vminpu=0.93 daily="RE6_DO" 
New "Load.BT_205719_M2" bus1="UC205719.2.4" phases=1 conn=delta model=3 kv=0.22 kw = 0.12830305741854028 pf=0.92 status=variable vmaxpu=1.5 vminpu=0.93 daily="RE6_DO"
 
New "Load.BT_205722_M1" bus1="UC205722.1.2.3.4" phases=3 conn=delta model=2 kv=0.38 kw = 0.1846861017809118 pf=0.92 status=variable vmaxpu=1.5 vminpu=0.93 daily="RU3_DO" 
New "Load.BT_205722_M2" bus1="UC205722.1.2.3.4" phases=3 conn=delta model=3 kv=0.38 kw = 0.1846861017809118 pf=0.92 status=variable vmaxpu=1.5 vminpu=0.93 daily="RU3_DO"
 
New "Load.BT_205727_M1" bus1="UC205727.1.4" phases=1 conn=delta model=2 kv=0.22 kw = 0.11843654871892373 pf=0.92 status=variable vmaxpu=1.5 vminpu=0.93 daily="RU5_DO" 
New "Load.BT_205727_M2" bus1="UC205727.1.4" phases=1 conn=delta model=3 kv=0.22 kw = 0.11843654871892373 pf=0.92 status=variable vmaxpu=1.5 vminpu=0.93 daily="RU5_DO"
 
New "Load.BT_205710_M1" bus1="UC205710.1.2.3.4" phases=3 conn=delta model=2 kv=0.38 kw = 0.2330562712949601 pf=0.92 status=variable vmaxpu=1.5 vminpu=0.93 daily="RU3_DO" 
New "Load.BT_205710_M2" bus1="UC205710.1.2.3.4" phases=3 conn=delta model=3 kv=0.38 kw = 0.2330562712949601 pf=0.92 status=variable vmaxpu=1.5 vminpu=0.93 daily="RU3_DO"
 
New "Load.BT_205711_M1" bus1="UC205711.2.4" phases=1 conn=delta model=2 kv=0.22 kw = 0.1152922155670939 pf=0.92 status=variable vmaxpu=1.5 vminpu=0.93 daily="RU5_DO" 
New "Load.BT_205711_M2" bus1="UC205711.2.4" phases=1 conn=delta model=3 kv=0.22 kw = 0.1152922155670939 pf=0.92 status=variable vmaxpu=1.5 vminpu=0.93 daily="RU5_DO"
 
New "Load.BT_205713_M1" bus1="UC205713.2.4" phases=1 conn=delta model=2 kv=0.22 kw = 0.2365741018050727 pf=0.92 status=variable vmaxpu=1.5 vminpu=0.93 daily="RU3_DO" 
New "Load.BT_205713_M2" bus1="UC205713.2.4" phases=1 conn=delta model=3 kv=0.22 kw = 0.2365741018050727 pf=0.92 status=variable vmaxpu=1.5 vminpu=0.93 daily="RU3_DO"
 
New "Load.BT_219351_M1" bus1="UC219351.2.4" phases=1 conn=delta model=2 kv=0.22 kw = 0.1394067856778643 pf=0.92 status=variable vmaxpu=1.5 vminpu=0.93 daily="RU7_DO" 
New "Load.BT_219351_M2" bus1="UC219351.2.4" phases=1 conn=delta model=3 kv=0.22 kw = 0.1394067856778643 pf=0.92 status=variable vmaxpu=1.5 vminpu=0.93 daily="RU7_DO"
 
New "Load.BT_219353_M1" bus1="UC219353.2.4" phases=1 conn=delta model=2 kv=0.22 kw = 0.008481401049376615 pf=0.92 status=variable vmaxpu=1.5 vminpu=0.93 daily="RU1_DO" 
New "Load.BT_219353_M2" bus1="UC219353.2.4" phases=1 conn=delta model=3 kv=0.22 kw = 0.008481401049376615 pf=0.92 status=variable vmaxpu=1.5 vminpu=0.93 daily="RU1_DO"
 
New "Load.BT_219354_M1" bus1="UC219354.1.4" phases=1 conn=delta model=2 kv=0.22 kw = 0.1101397148856504 pf=0.92 status=variable vmaxpu=1.5 vminpu=0.93 daily="RU6_DO" 
New "Load.BT_219354_M2" bus1="UC219354.1.4" phases=1 conn=delta model=3 kv=0.22 kw = 0.1101397148856504 pf=0.92 status=variable vmaxpu=1.5 vminpu=0.93 daily="RU6_DO"
 
New "Load.BT_219361_M1" bus1="UC219361.1.2.3.4" phases=3 conn=delta model=2 kv=0.38 kw = 0.116142185619901 pf=0.92 status=variable vmaxpu=1.5 vminpu=0.93 daily="RU1_DO" 
New "Load.BT_219361_M2" bus1="UC219361.1.2.3.4" phases=3 conn=delta model=3 kv=0.38 kw = 0.116142185619901 pf=0.92 status=variable vmaxpu=1.5 vminpu=0.93 daily="RU1_DO"
 
New "Load.BT_219363_M1" bus1="UC219363.2.4" phases=1 conn=delta model=2 kv=0.22 kw = 0.06393477408720662 pf=0.92 status=variable vmaxpu=1.5 vminpu=0.93 daily="RU5_DO" 
New "Load.BT_219363_M2" bus1="UC219363.2.4" phases=1 conn=delta model=3 kv=0.22 kw = 0.06393477408720662 pf=0.92 status=variable vmaxpu=1.5 vminpu=0.93 daily="RU5_DO"
 
New "Load.BT_205709_M1" bus1="UC205709.1.4" phases=1 conn=delta model=2 kv=0.22 kw = 0.05980311867191429 pf=0.92 status=variable vmaxpu=1.5 vminpu=0.93 daily="RU3_DO" 
New "Load.BT_205709_M2" bus1="UC205709.1.4" phases=1 conn=delta model=3 kv=0.22 kw = 0.05980311867191429 pf=0.92 status=variable vmaxpu=1.5 vminpu=0.93 daily="RU3_DO"
 
New "Load.BT_225590_M1" bus1="UC225590.2.4" phases=1 conn=delta model=2 kv=0.22 kw = 0.0 pf=0.92 status=variable vmaxpu=1.5 vminpu=0.93 daily="RU3_DO" 
New "Load.BT_225590_M2" bus1="UC225590.2.4" phases=1 conn=delta model=3 kv=0.22 kw = 0.0 pf=0.92 status=variable vmaxpu=1.5 vminpu=0.93 daily="RU3_DO"
 
New "Load.BT_225591_M1" bus1="UC225591.1.4" phases=1 conn=delta model=2 kv=0.22 kw = 0.05980311867191429 pf=0.92 status=variable vmaxpu=1.5 vminpu=0.93 daily="RU3_DO" 
New "Load.BT_225591_M2" bus1="UC225591.1.4" phases=1 conn=delta model=3 kv=0.22 kw = 0.05980311867191429 pf=0.92 status=variable vmaxpu=1.5 vminpu=0.93 daily="RU3_DO"
 
New "Load.BT_225591_M1" bus1="UC225591.1.4" phases=1 conn=delta model=2 kv=0.22 kw = 0.11177823081895483 pf=0.92 status=variable vmaxpu=1.5 vminpu=0.93 daily="RU4_DO" 
New "Load.BT_225591_M2" bus1="UC225591.1.4" phases=1 conn=delta model=3 kv=0.22 kw = 0.11177823081895483 pf=0.92 status=variable vmaxpu=1.5 vminpu=0.93 daily="RU4_DO"
 
New "Load.BT_225593_M1" bus1="UC225593.2.4" phases=1 conn=delta model=2 kv=0.22 kw = 0.16560154599637125 pf=0.92 status=variable vmaxpu=1.5 vminpu=0.93 daily="RU5_DO" 
New "Load.BT_225593_M2" bus1="UC225593.2.4" phases=1 conn=delta model=3 kv=0.22 kw = 0.16560154599637125 pf=0.92 status=variable vmaxpu=1.5 vminpu=0.93 daily="RU5_DO"
 
New "Load.BT_205706_M1" bus1="UC205706.1.2.4" phases=2 conn=delta model=2 kv=0.44 kw = 0.3167133703472205 pf=0.92 status=variable vmaxpu=1.5 vminpu=0.93 daily="RU8_DO" 
New "Load.BT_205706_M2" bus1="UC205706.1.2.4" phases=2 conn=delta model=3 kv=0.44 kw = 0.3167133703472205 pf=0.92 status=variable vmaxpu=1.5 vminpu=0.93 daily="RU8_DO"
 
New "Load.BT_205707_M1" bus1="UC205707.1.4" phases=1 conn=delta model=2 kv=0.22 kw = 0.0060778936814066264 pf=0.92 status=variable vmaxpu=1.5 vminpu=0.93 daily="CO3_DO" 
New "Load.BT_205707_M2" bus1="UC205707.1.4" phases=1 conn=delta model=3 kv=0.22 kw = 0.0060778936814066264 pf=0.92 status=variable vmaxpu=1.5 vminpu=0.93 daily="CO3_DO"
 
New "Load.BT_225285_M1" bus1="UC225285.1.4" phases=1 conn=delta model=2 kv=0.22 kw = 0.04148964506892189 pf=0.92 status=variable vmaxpu=1.5 vminpu=0.93 daily="RU2_DO" 
New "Load.BT_225285_M2" bus1="UC225285.1.4" phases=1 conn=delta model=3 kv=0.22 kw = 0.04148964506892189 pf=0.92 status=variable vmaxpu=1.5 vminpu=0.93 daily="RU2_DO"
 
New "Load.BT_225286_M1" bus1="UC225286.1.4" phases=1 conn=delta model=2 kv=0.22 kw = 0.0052939285700454785 pf=0.92 status=variable vmaxpu=1.5 vminpu=0.93 daily="RU7_DO" 
New "Load.BT_225286_M2" bus1="UC225286.1.4" phases=1 conn=delta model=3 kv=0.22 kw = 0.0052939285700454785 pf=0.92 status=variable vmaxpu=1.5 vminpu=0.93 daily="RU7_DO"
 
New "Load.BT_225289_M1" bus1="UC225289.1.4" phases=1 conn=delta model=2 kv=0.22 kw = 0.154072696534235 pf=0.92 status=variable vmaxpu=1.5 vminpu=0.93 daily="RU4_DO" 
New "Load.BT_225289_M2" bus1="UC225289.1.4" phases=1 conn=delta model=3 kv=0.22 kw = 0.154072696534235 pf=0.92 status=variable vmaxpu=1.5 vminpu=0.93 daily="RU4_DO"
 
New "Load.BT_225290_M1" bus1="UC225290.2.4" phases=1 conn=delta model=2 kv=0.22 kw = 0.11784732208877229 pf=0.92 status=variable vmaxpu=1.5 vminpu=0.93 daily="RU3_DO" 
New "Load.BT_225290_M2" bus1="UC225290.2.4" phases=1 conn=delta model=3 kv=0.22 kw = 0.11784732208877229 pf=0.92 status=variable vmaxpu=1.5 vminpu=0.93 daily="RU3_DO"
 
New "Load.BT_205695_M1" bus1="UC205695.1.4" phases=1 conn=delta model=2 kv=0.22 kw = 0.3883679790230622 pf=0.92 status=variable vmaxpu=1.5 vminpu=0.93 daily="RU8_DO" 
New "Load.BT_205695_M2" bus1="UC205695.1.4" phases=1 conn=delta model=3 kv=0.22 kw = 0.3883679790230622 pf=0.92 status=variable vmaxpu=1.5 vminpu=0.93 daily="RU8_DO"
 
New "Load.BT_205699_M1" bus1="UC205699.1.4" phases=1 conn=delta model=2 kv=0.22 kw = 0.055890594767156555 pf=0.92 status=variable vmaxpu=1.5 vminpu=0.93 daily="RU8_DO" 
New "Load.BT_205699_M2" bus1="UC205699.1.4" phases=1 conn=delta model=3 kv=0.22 kw = 0.055890594767156555 pf=0.92 status=variable vmaxpu=1.5 vminpu=0.93 daily="RU8_DO"
 
New "Load.BT_205700_M1" bus1="UC205700.1.4" phases=1 conn=delta model=2 kv=0.22 kw = 0.30709653782871377 pf=0.92 status=variable vmaxpu=1.5 vminpu=0.93 daily="RU5_DO" 
New "Load.BT_205700_M2" bus1="UC205700.1.4" phases=1 conn=delta model=3 kv=0.22 kw = 0.30709653782871377 pf=0.92 status=variable vmaxpu=1.5 vminpu=0.93 daily="RU5_DO"
 
New "Load.BT_205703_M1" bus1="UC205703.1.4" phases=1 conn=delta model=2 kv=0.22 kw = 5.300875655860384e-05 pf=0.92 status=variable vmaxpu=1.5 vminpu=0.93 daily="RU1_DO" 
New "Load.BT_205703_M2" bus1="UC205703.1.4" phases=1 conn=delta model=3 kv=0.22 kw = 5.300875655860384e-05 pf=0.92 status=variable vmaxpu=1.5 vminpu=0.93 daily="RU1_DO"
 
New "Load.BT_218342_M1" bus1="UC218342.1.4" phases=1 conn=delta model=2 kv=0.22 kw = 0.05840664313062503 pf=0.92 status=variable vmaxpu=1.5 vminpu=0.93 daily="RU4_DO" 
New "Load.BT_218342_M2" bus1="UC218342.1.4" phases=1 conn=delta model=3 kv=0.22 kw = 0.05840664313062503 pf=0.92 status=variable vmaxpu=1.5 vminpu=0.93 daily="RU4_DO"
 
New "Load.BT_224968_M1" bus1="UC224968.2.4" phases=1 conn=delta model=2 kv=0.22 kw = 5.300875655860384e-05 pf=0.92 status=variable vmaxpu=1.5 vminpu=0.93 daily="RU1_DO" 
New "Load.BT_224968_M2" bus1="UC224968.2.4" phases=1 conn=delta model=3 kv=0.22 kw = 5.300875655860384e-05 pf=0.92 status=variable vmaxpu=1.5 vminpu=0.93 daily="RU1_DO"
 
New "Load.BT_225281_M1" bus1="UC225281.1.4" phases=1 conn=delta model=2 kv=0.22 kw = 0.1601301724370929 pf=0.92 status=variable vmaxpu=1.5 vminpu=0.93 daily="RE6_DO" 
New "Load.BT_225281_M2" bus1="UC225281.1.4" phases=1 conn=delta model=3 kv=0.22 kw = 0.1601301724370929 pf=0.92 status=variable vmaxpu=1.5 vminpu=0.93 daily="RE6_DO"
 
New "Load.BT_218304_M1" bus1="UC218304.1.2.3.4" phases=3 conn=delta model=2 kv=0.38 kw = 0.1270542856810915 pf=0.92 status=variable vmaxpu=1.5 vminpu=0.93 daily="RU7_DO" 
New "Load.BT_218304_M2" bus1="UC218304.1.2.3.4" phases=3 conn=delta model=3 kv=0.38 kw = 0.1270542856810915 pf=0.92 status=variable vmaxpu=1.5 vminpu=0.93 daily="RU7_DO"
 
New "Load.BT_218305_M1" bus1="UC218305.3.4" phases=1 conn=delta model=2 kv=0.22 kw = 0.012192014008478884 pf=0.92 status=variable vmaxpu=1.5 vminpu=0.93 daily="RU1_DO" 
New "Load.BT_218305_M2" bus1="UC218305.3.4" phases=1 conn=delta model=3 kv=0.22 kw = 0.012192014008478884 pf=0.92 status=variable vmaxpu=1.5 vminpu=0.93 daily="RU1_DO"
 
New "Load.BT_218309_M1" bus1="UC218309.1.4" phases=1 conn=delta model=2 kv=0.22 kw = 0.008216357266583594 pf=0.92 status=variable vmaxpu=1.5 vminpu=0.93 daily="RU1_DO" 
New "Load.BT_218309_M2" bus1="UC218309.1.4" phases=1 conn=delta model=3 kv=0.22 kw = 0.008216357266583594 pf=0.92 status=variable vmaxpu=1.5 vminpu=0.93 daily="RU1_DO"
 
New "Load.BT_218318_M1" bus1="UC218318.1.4" phases=1 conn=delta model=2 kv=0.22 kw = 0.2064778769701591 pf=0.92 status=variable vmaxpu=1.5 vminpu=0.93 daily="RU5_DO" 
New "Load.BT_218318_M2" bus1="UC218318.1.4" phases=1 conn=delta model=3 kv=0.22 kw = 0.2064778769701591 pf=0.92 status=variable vmaxpu=1.5 vminpu=0.93 daily="RU5_DO"
 
New "Load.BT_218320_M1" bus1="UC218320.1.4" phases=1 conn=delta model=2 kv=0.22 kw = 0.000504792893161364 pf=0.92 status=variable vmaxpu=1.5 vminpu=0.93 daily="CO4_DO" 
New "Load.BT_218320_M2" bus1="UC218320.1.4" phases=1 conn=delta model=3 kv=0.22 kw = 0.000504792893161364 pf=0.92 status=variable vmaxpu=1.5 vminpu=0.93 daily="CO4_DO"
 
New "Load.BT_218323_M1" bus1="UC218323.1.4" phases=1 conn=delta model=2 kv=0.22 kw = 0.22456347272636867 pf=0.92 status=variable vmaxpu=1.5 vminpu=0.93 daily="RU4_DO" 
New "Load.BT_218323_M2" bus1="UC218323.1.4" phases=1 conn=delta model=3 kv=0.22 kw = 0.22456347272636867 pf=0.92 status=variable vmaxpu=1.5 vminpu=0.93 daily="RU4_DO"
 
New "Load.BT_223646_M1" bus1="UC223646.1.4" phases=1 conn=delta model=2 kv=0.22 kw = 0.07166393239177418 pf=0.92 status=variable vmaxpu=1.5 vminpu=0.93 daily="RU2_DO" 
New "Load.BT_223646_M2" bus1="UC223646.1.4" phases=1 conn=delta model=3 kv=0.22 kw = 0.07166393239177418 pf=0.92 status=variable vmaxpu=1.5 vminpu=0.93 daily="RU2_DO"
 
New "Load.BT_205687_M1" bus1="UC205687.1.4" phases=1 conn=delta model=2 kv=0.22 kw = 0.08675107605320032 pf=0.92 status=variable vmaxpu=1.5 vminpu=0.93 daily="RU2_DO" 
New "Load.BT_205687_M2" bus1="UC205687.1.4" phases=1 conn=delta model=3 kv=0.22 kw = 0.08675107605320032 pf=0.92 status=variable vmaxpu=1.5 vminpu=0.93 daily="RU2_DO"
 
New "Load.BT_205689_M1" bus1="UC205689.1.4" phases=1 conn=delta model=2 kv=0.22 kw = 0.0 pf=0.92 status=variable vmaxpu=1.5 vminpu=0.93 daily="RU2_DO" 
New "Load.BT_205689_M2" bus1="UC205689.1.4" phases=1 conn=delta model=3 kv=0.22 kw = 0.0 pf=0.92 status=variable vmaxpu=1.5 vminpu=0.93 daily="RU2_DO"
 
New "Load.BT_205691_M1" bus1="UC205691.1.2.4" phases=2 conn=delta model=2 kv=0.44 kw = 0.0560711275781493 pf=0.92 status=variable vmaxpu=1.5 vminpu=0.93 daily="RU6_DO" 
New "Load.BT_205691_M2" bus1="UC205691.1.2.4" phases=2 conn=delta model=3 kv=0.44 kw = 0.0560711275781493 pf=0.92 status=variable vmaxpu=1.5 vminpu=0.93 daily="RU6_DO"
 
New "Load.BT_223645_M1" bus1="UC223645.1.4" phases=1 conn=delta model=2 kv=0.22 kw = 0.15477395473981814 pf=0.92 status=variable vmaxpu=1.5 vminpu=0.93 daily="RU8_DO" 
New "Load.BT_223645_M2" bus1="UC223645.1.4" phases=1 conn=delta model=3 kv=0.22 kw = 0.15477395473981814 pf=0.92 status=variable vmaxpu=1.5 vminpu=0.93 daily="RU8_DO"
 
New "Load.BT_223633_M1" bus1="UC223633.1.4" phases=1 conn=delta model=2 kv=0.22 kw = 0.13717400853940098 pf=0.92 status=variable vmaxpu=1.5 vminpu=0.93 daily="RU6_DO" 
New "Load.BT_223633_M2" bus1="UC223633.1.4" phases=1 conn=delta model=3 kv=0.22 kw = 0.13717400853940098 pf=0.92 status=variable vmaxpu=1.5 vminpu=0.93 daily="RU6_DO"
 
New "Load.BT_223634_M1" bus1="UC223634.1.4" phases=1 conn=delta model=2 kv=0.22 kw = 0.0802912499790231 pf=0.92 status=variable vmaxpu=1.5 vminpu=0.93 daily="RU7_DO" 
New "Load.BT_223634_M2" bus1="UC223634.1.4" phases=1 conn=delta model=3 kv=0.22 kw = 0.0802912499790231 pf=0.92 status=variable vmaxpu=1.5 vminpu=0.93 daily="RU7_DO"
 
New "Load.BT_223644_M1" bus1="UC223644.1.4" phases=1 conn=delta model=2 kv=0.22 kw = 0.12821549290153428 pf=0.92 status=variable vmaxpu=1.5 vminpu=0.93 daily="RE5_DO" 
New "Load.BT_223644_M2" bus1="UC223644.1.4" phases=1 conn=delta model=3 kv=0.22 kw = 0.12821549290153428 pf=0.92 status=variable vmaxpu=1.5 vminpu=0.93 daily="RE5_DO"
 
New "Load.BT_217026_M1" bus1="UC217026.1.4" phases=1 conn=delta model=2 kv=0.22 kw = 0.1005846428308641 pf=0.92 status=variable vmaxpu=1.5 vminpu=0.93 daily="RU7_DO" 
New "Load.BT_217026_M2" bus1="UC217026.1.4" phases=1 conn=delta model=3 kv=0.22 kw = 0.1005846428308641 pf=0.92 status=variable vmaxpu=1.5 vminpu=0.93 daily="RU7_DO"
 
New "Load.BT_217031_M1" bus1="UC217031.1.4" phases=1 conn=delta model=2 kv=0.22 kw = 0.13040380796355644 pf=0.92 status=variable vmaxpu=1.5 vminpu=0.93 daily="RE2_DO" 
New "Load.BT_217031_M2" bus1="UC217031.1.4" phases=1 conn=delta model=3 kv=0.22 kw = 0.13040380796355644 pf=0.92 status=variable vmaxpu=1.5 vminpu=0.93 daily="RE2_DO"
 
New "Load.BT_218301_M1" bus1="UC218301.1.2.4" phases=2 conn=delta model=2 kv=0.44 kw = 0.1520586743573169 pf=0.92 status=variable vmaxpu=1.5 vminpu=0.93 daily="RU4_DO" 
New "Load.BT_218301_M2" bus1="UC218301.1.2.4" phases=2 conn=delta model=3 kv=0.44 kw = 0.1520586743573169 pf=0.92 status=variable vmaxpu=1.5 vminpu=0.93 daily="RU4_DO"
 
New "Load.BT_223630_M1" bus1="UC223630.2.4" phases=1 conn=delta model=2 kv=0.22 kw = 0.04133450849382311 pf=0.92 status=variable vmaxpu=1.5 vminpu=0.93 daily="RU3_DO" 
New "Load.BT_223630_M2" bus1="UC223630.2.4" phases=1 conn=delta model=3 kv=0.22 kw = 0.04133450849382311 pf=0.92 status=variable vmaxpu=1.5 vminpu=0.93 daily="RU3_DO"
 
New "Load.BT_223631_M1" bus1="UC223631.2.4" phases=1 conn=delta model=2 kv=0.22 kw = 0.10212955380305765 pf=0.92 status=variable vmaxpu=1.5 vminpu=0.93 daily="RU6_DO" 
New "Load.BT_223631_M2" bus1="UC223631.2.4" phases=1 conn=delta model=3 kv=0.22 kw = 0.10212955380305765 pf=0.92 status=variable vmaxpu=1.5 vminpu=0.93 daily="RU6_DO"
 
New "Load.BT_222260_M1" bus1="UC222260.1.4" phases=1 conn=delta model=2 kv=0.22 kw = 0.23293285708200107 pf=0.92 status=variable vmaxpu=1.5 vminpu=0.93 daily="RU7_DO" 
New "Load.BT_222260_M2" bus1="UC222260.1.4" phases=1 conn=delta model=3 kv=0.22 kw = 0.23293285708200107 pf=0.92 status=variable vmaxpu=1.5 vminpu=0.93 daily="RU7_DO"
 
New "Load.BT_222263_M1" bus1="UC222263.1.4" phases=1 conn=delta model=2 kv=0.22 kw = 0.09566620639858849 pf=0.92 status=variable vmaxpu=1.5 vminpu=0.93 daily="RU2_DO" 
New "Load.BT_222263_M2" bus1="UC222263.1.4" phases=1 conn=delta model=3 kv=0.22 kw = 0.09566620639858849 pf=0.92 status=variable vmaxpu=1.5 vminpu=0.93 daily="RU2_DO"
 
New "Load.BT_205680_M1" bus1="UC205680.1.2.3.4" phases=3 conn=delta model=2 kv=0.38 kw = 0.2170491349473352 pf=0.92 status=variable vmaxpu=1.5 vminpu=0.93 daily="RU2_DO" 
New "Load.BT_205680_M2" bus1="UC205680.1.2.3.4" phases=3 conn=delta model=3 kv=0.38 kw = 0.2170491349473352 pf=0.92 status=variable vmaxpu=1.5 vminpu=0.93 daily="RU2_DO"
 
New "Load.BT_205681_M1" bus1="UC205681.1.2.4" phases=2 conn=delta model=2 kv=0.44 kw = 0.5517404868039815 pf=0.92 status=variable vmaxpu=1.5 vminpu=0.93 daily="RU8_DO" 
New "Load.BT_205681_M2" bus1="UC205681.1.2.4" phases=2 conn=delta model=3 kv=0.44 kw = 0.5517404868039815 pf=0.92 status=variable vmaxpu=1.5 vminpu=0.93 daily="RU8_DO"
 
New "Load.BT_205675_M1" bus1="UC205675.2.4" phases=1 conn=delta model=2 kv=0.22 kw = 0.053453663581107175 pf=0.92 status=variable vmaxpu=1.5 vminpu=0.93 daily="RU5_DO" 
New "Load.BT_205675_M2" bus1="UC205675.2.4" phases=1 conn=delta model=3 kv=0.22 kw = 0.053453663581107175 pf=0.92 status=variable vmaxpu=1.5 vminpu=0.93 daily="RU5_DO"
 
New "Load.BT_238952_M1" bus1="UC238952.2.4" phases=1 conn=delta model=2 kv=0.22 kw = 0.0 pf=0.92 status=variable vmaxpu=1.5 vminpu=0.93 daily="RE3_DO" 
New "Load.BT_238952_M2" bus1="UC238952.2.4" phases=1 conn=delta model=3 kv=0.22 kw = 0.0 pf=0.92 status=variable vmaxpu=1.5 vminpu=0.93 daily="RE3_DO"
 
New "Load.BT_205735_M1" bus1="UC205735.3.1.4" phases=2 conn=delta model=2 kv=0.38 kw = 0.5942789656958386 pf=0.92 status=variable vmaxpu=1.5 vminpu=0.93 daily="RU5_DO" 
New "Load.BT_205735_M2" bus1="UC205735.3.1.4" phases=2 conn=delta model=3 kv=0.38 kw = 0.5942789656958386 pf=0.92 status=variable vmaxpu=1.5 vminpu=0.93 daily="RU5_DO"
 
New "Load.BT_238959_M1" bus1="UC238959.1.4" phases=1 conn=delta model=2 kv=0.22 kw = 0.0 pf=0.92 status=variable vmaxpu=1.5 vminpu=0.93 daily="RE2_DO" 
New "Load.BT_238959_M2" bus1="UC238959.1.4" phases=1 conn=delta model=3 kv=0.22 kw = 0.0 pf=0.92 status=variable vmaxpu=1.5 vminpu=0.93 daily="RE2_DO"
 
New "Load.BT_221689_M1" bus1="UC221689.1.4" phases=1 conn=delta model=2 kv=0.22 kw = 0.40951948534755467 pf=0.92 status=variable vmaxpu=1.5 vminpu=0.93 daily="RU6_DO" 
New "Load.BT_221689_M2" bus1="UC221689.1.4" phases=1 conn=delta model=3 kv=0.22 kw = 0.40951948534755467 pf=0.92 status=variable vmaxpu=1.5 vminpu=0.93 daily="RU6_DO"
 
New "Load.BT_238205_M1" bus1="UC238205.2.4" phases=1 conn=delta model=2 kv=0.22 kw = 0.020850025440657127 pf=0.92 status=variable vmaxpu=1.5 vminpu=0.93 daily="RE1_DO" 
New "Load.BT_238205_M2" bus1="UC238205.2.4" phases=1 conn=delta model=3 kv=0.22 kw = 0.020850025440657127 pf=0.92 status=variable vmaxpu=1.5 vminpu=0.93 daily="RE1_DO"
 
New "Load.BT_235961_M1" bus1="UC235961.1.4" phases=1 conn=delta model=2 kv=0.22 kw = 0.007008890947268662 pf=0.92 status=variable vmaxpu=1.5 vminpu=0.93 daily="RU6_DO" 
New "Load.BT_235961_M2" bus1="UC235961.1.4" phases=1 conn=delta model=3 kv=0.22 kw = 0.007008890947268662 pf=0.92 status=variable vmaxpu=1.5 vminpu=0.93 daily="RU6_DO"
 
New "Load.BT_237573_M1" bus1="UC237573.1.4" phases=1 conn=delta model=2 kv=0.22 kw = 0.056285288161801686 pf=0.92 status=variable vmaxpu=1.5 vminpu=0.93 daily="RU3_DO" 
New "Load.BT_237573_M2" bus1="UC237573.1.4" phases=1 conn=delta model=3 kv=0.22 kw = 0.056285288161801686 pf=0.92 status=variable vmaxpu=1.5 vminpu=0.93 daily="RU3_DO"
 
New "Load.BT_237359_M1" bus1="UC237359.2.4" phases=1 conn=delta model=2 kv=0.22 kw = 0.09189442048323196 pf=0.92 status=variable vmaxpu=1.5 vminpu=0.93 daily="RU2_DO" 
New "Load.BT_237359_M2" bus1="UC237359.2.4" phases=1 conn=delta model=3 kv=0.22 kw = 0.09189442048323196 pf=0.92 status=variable vmaxpu=1.5 vminpu=0.93 daily="RU2_DO"
 
New "Load.BT_237167_M1" bus1="UC237167.2.4" phases=1 conn=delta model=2 kv=0.22 kw = 0.15407232443966185 pf=0.92 status=variable vmaxpu=1.5 vminpu=0.93 daily="RU5_DO" 
New "Load.BT_237167_M2" bus1="UC237167.2.4" phases=1 conn=delta model=3 kv=0.22 kw = 0.15407232443966185 pf=0.92 status=variable vmaxpu=1.5 vminpu=0.93 daily="RU5_DO"
 
New "Load.BT_236486_M1" bus1="UC236486.1.4" phases=1 conn=delta model=2 kv=0.22 kw = 0.14117908908069735 pf=0.92 status=variable vmaxpu=1.5 vminpu=0.93 daily="RU6_DO" 
New "Load.BT_236486_M2" bus1="UC236486.1.4" phases=1 conn=delta model=3 kv=0.22 kw = 0.14117908908069735 pf=0.92 status=variable vmaxpu=1.5 vminpu=0.93 daily="RU6_DO"
 
New "Load.BT_2836677_M1" bus1="UC2836677.1.4" phases=1 conn=delta model=2 kv=0.22 kw = 0.0654919190757362 pf=0.92 status=variable vmaxpu=1.5 vminpu=0.93 daily="RU2_DO" 
New "Load.BT_2836677_M2" bus1="UC2836677.1.4" phases=1 conn=delta model=3 kv=0.22 kw = 0.0654919190757362 pf=0.92 status=variable vmaxpu=1.5 vminpu=0.93 daily="RU2_DO"
 
New "Load.BT_2836674_M1" bus1="UC2836674.2.4" phases=1 conn=delta model=2 kv=0.22 kw = 0.0 pf=0.92 status=variable vmaxpu=1.5 vminpu=0.93 daily="RU6_DO" 
New "Load.BT_2836674_M2" bus1="UC2836674.2.4" phases=1 conn=delta model=3 kv=0.22 kw = 0.0 pf=0.92 status=variable vmaxpu=1.5 vminpu=0.93 daily="RU6_DO"
 
New "Load.BT_235585_M1" bus1="UC235585.1.2.4" phases=2 conn=delta model=2 kv=0.44 kw = 0.6798624218850603 pf=0.92 status=variable vmaxpu=1.5 vminpu=0.93 daily="RU6_DO" 
New "Load.BT_235585_M2" bus1="UC235585.1.2.4" phases=2 conn=delta model=3 kv=0.44 kw = 0.6798624218850603 pf=0.92 status=variable vmaxpu=1.5 vminpu=0.93 daily="RU6_DO"
 
New "Load.BT_2805422_M1" bus1="UC2805422.1.2.4" phases=2 conn=delta model=2 kv=0.44 kw = 0.018233681044219883 pf=0.92 status=variable vmaxpu=1.5 vminpu=0.93 daily="CO3_DO" 
New "Load.BT_2805422_M2" bus1="UC2805422.1.2.4" phases=2 conn=delta model=3 kv=0.44 kw = 0.018233681044219883 pf=0.92 status=variable vmaxpu=1.5 vminpu=0.93 daily="CO3_DO"
 
New "Load.BT_2835970_M1" bus1="UC2835970.1.4" phases=1 conn=delta model=2 kv=0.22 kw = 0.04183253469759067 pf=0.92 status=variable vmaxpu=1.5 vminpu=0.93 daily="RU2_DO" 
New "Load.BT_2835970_M2" bus1="UC2835970.1.4" phases=1 conn=delta model=3 kv=0.22 kw = 0.04183253469759067 pf=0.92 status=variable vmaxpu=1.5 vminpu=0.93 daily="RU2_DO"
 
New "Load.BT_236232_M1" bus1="UC236232.1.2.3.4" phases=3 conn=delta model=2 kv=0.38 kw = 0.39927376289778066 pf=0.92 status=variable vmaxpu=1.5 vminpu=0.93 daily="RU3_DO" 
New "Load.BT_236232_M2" bus1="UC236232.1.2.3.4" phases=3 conn=delta model=3 kv=0.38 kw = 0.39927376289778066 pf=0.92 status=variable vmaxpu=1.5 vminpu=0.93 daily="RU3_DO"
 
New "Load.BT_205652_M1" bus1="UC205652.1.4" phases=1 conn=delta model=2 kv=0.22 kw = 0.19390054436283977 pf=0.92 status=variable vmaxpu=1.5 vminpu=0.93 daily="RU5_DO" 
New "Load.BT_205652_M2" bus1="UC205652.1.4" phases=1 conn=delta model=3 kv=0.22 kw = 0.19390054436283977 pf=0.92 status=variable vmaxpu=1.5 vminpu=0.93 daily="RU5_DO"
 
New "Load.BT_205761_M1" bus1="UC205761.1.2.3.4" phases=3 conn=delta model=2 kv=0.38 kw = 0.9272106362653921 pf=0.92 status=variable vmaxpu=1.5 vminpu=0.93 daily="RU8_DO" 
New "Load.BT_205761_M2" bus1="UC205761.1.2.3.4" phases=3 conn=delta model=3 kv=0.38 kw = 0.9272106362653921 pf=0.92 status=variable vmaxpu=1.5 vminpu=0.93 daily="RU8_DO"
 
New "Load.BT_225860_M1" bus1="UC225860.2.4" phases=1 conn=delta model=2 kv=0.22 kw = 0.10053428898119225 pf=0.92 status=variable vmaxpu=1.5 vminpu=0.93 daily="RE8_DO" 
New "Load.BT_225860_M2" bus1="UC225860.2.4" phases=1 conn=delta model=3 kv=0.22 kw = 0.10053428898119225 pf=0.92 status=variable vmaxpu=1.5 vminpu=0.93 daily="RE8_DO"
 
New "Load.BT_235692_M1" bus1="UC235692.1.4" phases=1 conn=delta model=2 kv=0.22 kw = 0.09950290490032226 pf=0.92 status=variable vmaxpu=1.5 vminpu=0.93 daily="RE7_DO" 
New "Load.BT_235692_M2" bus1="UC235692.1.4" phases=1 conn=delta model=3 kv=0.22 kw = 0.09950290490032226 pf=0.92 status=variable vmaxpu=1.5 vminpu=0.93 daily="RE7_DO"
 
New "Load.BT_235691_M1" bus1="UC235691.2.4" phases=1 conn=delta model=2 kv=0.22 kw = 0.031217343742230626 pf=0.92 status=variable vmaxpu=1.5 vminpu=0.93 daily="RU4_DO" 
...